##################################################################
#                    OmNet++ Parameters                          #
##################################################################
[General]

#user-interface = Tkenv
user-interface = Cmdenv
cmdenv-interactive = true
cmdenv-express-mode = true
cmdenv-status-frequency = 5s
cmdenv-event-banners = true

#Duration of the simulation + initOffset
sim-time-limit = 4.0s #originally set to 7s
**.runtime = 3.000s #for the stop watch, originally the same as sim-time-limit
**.initOffset = 1s

repeat = 1 # originally set to 30
seed-set = ${repetition}

#the default network
network = Debug

**.debug = true

##################################################################
#                    Network Parameters                          #
##################################################################
**.numberOfMobileStations = 2
**.maxNumberOfNeighbours = 1
num-rngs = 2
**.cell[0].bs.dataChn.rng-0 = 1;
**.commTable = "comm_2.xml"

**.packetLength = 100b #length of the generated packets in App

**.channelModel = 2
**.d0 = 15m
**.pl0 = 81.01
**.plExp = 0.91
**.shadowSigma = 4.79
**.MCSTable = "koi_mcs.dat"
**.CarrierFrequency = 5.2GHz
**.chnBandwidth = 100MHz
**.lteFactor = 4
**.bandwidthPerRB = 180kHz
**.tti = 1ms
**.upResourceBlocks = 5
**.downResourceBlocks = 5
**.considerInterference = false
**.msVel = 0.0

**.epsilon = 1ns #used for event timing

# We don't have D2D communication in this simulation
**.d2dActive = false

#Interval in which the MS sends its position updates; In TTIs
**.positionResendInterval = 1 # originally set to 7000

##################################################################
#              Define the different test settings                #
##################################################################

include Scheduling.ini
include traffic.ini
include positions.ini
